%nprocshared=8
%mem=8GB
%chk=10cpp_c60.chk
#p opt freq rcam-b3lyp/6-31g(d)

Title Card Required

0 1
 H                  2.87743800    6.17226100    2.06448600
 C                  3.41666700    5.88600900    1.16582400
 C                  4.76477800    5.02306500   -1.08527100
 C                  4.58285000    5.14083300    1.29223300
 C                  2.85882400    6.14752400   -0.09092800
 C                  3.62082800    5.79663600   -1.21185000
 C                  5.21928400    4.59560500    0.16923900
 H                  4.94467300    4.90662200    2.28902700
 H                  3.26574800    6.05076400   -2.20644400
 H                  5.24291500    4.65862300   -1.98895000
 C                  6.11063600    3.40631000    0.26529600
 C                  7.04321400    0.73445600    0.11248700
 C                  5.94678200    2.51720700    1.33485400
 C                  6.91446200    2.97850800   -0.80142700
 C                  7.35909000    1.66386100   -0.88465400
 C                  6.41214900    1.21256400    1.26518700
 H                  5.33348000    2.79805200    2.18465200
 H                  7.13978100    3.65847300   -1.61799200
 H                  7.90271200    1.33909100   -1.76805500
 H                  6.15691100    0.51704000    2.05962600
 C                  7.04317900   -0.73475100   -0.11257400
 C                  6.11047100   -3.40656400   -0.26534500
 C                  6.41206200   -1.21283600   -1.26525500
 C                  7.35904000   -1.66416600    0.88456200
 C                  6.91434800   -2.97879200    0.80135200
 C                  5.94663400   -2.51745800   -1.33490400
 H                  6.15683300   -0.51730400   -2.05969000
 H                  7.90270000   -1.33941800    1.76794700
 H                  7.13965800   -3.65876200    1.61791500
 H                  5.33329600   -2.79827300   -2.18468500
 C                  5.21906300   -4.59581800   -0.16924400
 C                  2.85854500   -6.14763500    0.09099900
 C                  4.76456500   -5.02323500    1.08528100
 C                  4.58259100   -5.14105400   -1.29221600
 C                  3.41638300   -5.88618100   -1.16576900
 C                  3.62058100   -5.79675500    1.21189800
 H                  5.24273000   -4.65879700    1.98894500
 H                  4.94441400   -4.90689900   -2.28902200
 H                  2.87713200   -6.17244300   -2.06441500
 H                  3.26551200   -6.05084800    2.20650500
 C                  1.42007300   -6.49639500    0.22635400
 C                 -1.42036600   -6.49633700    0.22634600
 C                  0.69152900   -5.85538700    1.23523100
 C                  0.69625000   -7.23834600   -0.71587800
 C                 -0.69656800   -7.23831600   -0.71588300
 C                 -0.69180200   -5.85536100    1.23522800
 H                  1.20973900   -5.24701300    1.96920500
 H                  1.22483800   -7.79196400   -1.48749000
 H                 -1.22517300   -7.79191400   -1.48749700
 H                 -1.20999200   -5.24696600    1.96920100
 H                  1.22517300    7.79185400    1.48762700
 C                  0.69656800    7.23828300    0.71599300
 C                 -0.69152800    5.85542900   -1.23517500
 C                 -0.69625000    7.23831200    0.71598800
 C                  1.42036500    6.49634000   -0.22626500
 C                  0.69180300    5.85540300   -1.23517200
 C                 -1.42007200    6.49639700   -0.22627400
 H                 -1.22483900    7.79190300    1.48761900
 H                  1.20999400    5.24704000   -1.96917000
 H                 -1.20973900    5.24708600   -1.96917600
 C                 -2.85854500    6.14763800   -0.09094200
 C                 -5.21907000    4.59581900    0.16923000
 C                 -3.41639800    5.88614800    1.16581300
 C                 -3.62056700    5.79678600   -1.21186100
 C                 -4.76455100    5.02326100   -1.08527900
 C                 -4.58261100    5.14102200    1.29222500
 H                 -2.87715600    6.17238200    2.06447300
 H                 -3.26548200    6.05090100   -2.20645600
 H                 -5.24270300    4.65884400   -1.98895900
 H                 -4.94444400    4.90683400    2.28901900
 C                 -6.11047700    3.40656300    0.26529400
 C                 -7.04318000    0.73475100    0.11249300
 C                 -6.91432500    2.97879400   -0.80142600
 C                 -5.94666800    2.51745500    1.33485600
 C                 -6.41209400    1.21283300    1.26519200
 C                 -7.35901400    1.66416700   -0.88465100
 H                 -7.13961500    3.65876600   -1.61799200
 H                 -5.33335500    2.79827200    2.18465500
 H                 -6.15688800    0.51730000    2.05963300
 H                 -7.90265100    1.33942000   -1.76805000
 C                 -7.04321300   -0.73445700   -0.11256600
 C                 -6.11063100   -3.40631300   -0.26533900
 C                 -7.35911400   -1.66385700    0.88457100
 C                 -6.41211800   -1.21257100   -1.26524800
 C                 -5.94675100   -2.51721400   -1.33489800
 C                 -6.91448300   -2.97850500    0.80136100
 H                 -7.90275700   -1.33908300    1.76795700
 H                 -6.15685800   -0.51705000   -2.05968300
 H                 -5.33342600   -2.79806100   -2.18467800
 H                 -7.13982100   -3.65846500    1.61792500
 C                 -5.21927900   -4.59560600   -0.16924700
 C                 -2.85882300   -6.14752100    0.09098700
 C                 -4.76479000   -5.02303800    1.08527900
 C                 -4.58283200   -5.14086300   -1.29222000
 C                 -3.41665300   -5.88604000   -1.16577800
 C                 -3.62084100   -5.79660400    1.21189100
 H                 -5.24294000   -4.65857700    1.98894300
 H                 -4.94464400   -4.90668200   -2.28902400
 H                 -2.87741600   -6.17231700   -2.06442700
 H                 -3.26577500   -6.05071100    2.20649500
 Bq                 0.00000000    0.00000000    0.00000000
 C                 -1.80519392    3.02997459   13.59662030
 C                 -1.88467638    2.52053038   14.95214829
 C                 -0.74868889    2.48012207   15.74529998
 C                  0.51867796    2.94686173   15.21960390
 C                  0.59480033    3.43622955   13.92389772
 C                 -0.59417399    3.47904257   13.09496038
 C                 -2.68359499    2.23115455   12.76521901
 C                 -3.30440301    1.22896271   13.60590974
 C                 -2.81170400    1.40592305   14.95717682
 C                 -2.56032744    0.30233268   15.75385186
 C                 -0.48825063    1.32408261   16.58061409
 C                  1.56268589    2.08098877   15.73025980
 C                  2.63772412    1.74048220   14.92167641
 C                  2.71656398    2.25080697   13.56749441
 C                  1.71806664    3.07940894   13.07991794
 C                  1.22383036    2.90178497   11.72909403
 C                 -0.20473118    3.14979041   11.73698346
 C                 -1.04445663    2.38575237   10.94289716
 C                 -2.31227081    1.91824062   11.46814183
 C                 -3.52842303   -0.04590915   13.11307024
 C                 -3.13920432   -0.37555316   11.75598563
 C                 -2.54584473    0.58496904   10.95173972
 C                 -1.42171259    0.22764811   10.10775768
 C                 -0.49317740    1.34086294   10.10361694
 C                  0.87134992    1.10194913   10.09932764
 C                  1.75061770    1.90028045   10.92849063
 C                  2.79770191    1.03575798   11.43378810
 C                  3.26915725    1.20620092   12.72642729
 C                  0.94120644    1.07763298   16.57139144
 C                  2.67652849   -2.22315980   13.90692556
 C                  2.30369761   -1.90884174   15.20087892
 C                  1.04107757   -2.37936706   15.72834604
 C                  0.20327732   -3.14608163   14.93692991
 C                  0.59185429   -3.47483347   13.57895525
 C                  1.88389396   -2.51565766   11.72132416
 C                  2.81374319   -1.40215945   11.71539652
 C                  3.30102308   -1.22258902   13.06756950
 C                  3.52872967    0.05066178   13.56174367
 C                  3.13864513    0.38080612   14.91883054
 C                  2.54050990   -0.57797494   15.72040032
 C                  0.49169297   -1.33922191   16.57386342
 C                 -0.87264081   -1.10198399   16.58082740
 C                 -1.75168449   -1.89992346   15.75077210
 C                 -1.22617975   -2.89963200   14.94615256
 C                 -1.71887876   -3.07659234   13.59488548
 C                 -0.59558276   -3.43135683   12.74957474
 C                 -0.51971332   -2.94442537   11.45385579
 C                  0.74787764   -2.47729386   10.92726740
 C                  2.56608376   -0.29812239   10.91648915
 C                  1.37534807   -0.25636485   10.08888731
 C                  0.48679677   -1.32037384   10.09329927
 C                 -0.94134713   -1.07365243   10.10297106
 C                 -1.56369242   -2.07650790   10.94410497
 C                 -2.63719337   -1.73533771   11.75224518
 C                 -2.71625734   -2.24605433   13.10731950
 C                 -3.26689483   -1.20205708   13.94748978
 C                 -2.79261789   -1.03272325   15.23922986
 C                  1.42048197   -0.22355910   16.56749940
 C                 -1.37202368    0.25836733   16.58099407
 C                  1.80309832   -3.02537363   13.07640301
 Bq                -0.00047997    0.00208209   13.33691324

